Version 4
SHEET 1 2512 2576
WIRE 320 -1856 256 -1856
WIRE 416 -1856 384 -1856
WIRE 496 -1856 416 -1856
WIRE 672 -1856 576 -1856
WIRE 416 -1808 416 -1856
WIRE 672 -1760 672 -1856
WIRE 416 -1712 416 -1728
WIRE 624 -1696 576 -1696
WIRE 736 -1696 720 -1696
WIRE 736 -1632 736 -1696
WIRE 576 -1520 576 -1696
WIRE 624 -1520 576 -1520
WIRE 736 -1520 736 -1552
WIRE 736 -1520 688 -1520
WIRE 1024 -1504 976 -1504
WIRE 1152 -1504 1104 -1504
WIRE 656 -1376 656 -1392
WIRE 448 -1360 352 -1360
WIRE 576 -1360 576 -1520
WIRE 576 -1360 528 -1360
WIRE 624 -1360 576 -1360
WIRE 1072 -1360 1072 -1376
WIRE 736 -1344 736 -1520
WIRE 736 -1344 688 -1344
WIRE 864 -1344 736 -1344
WIRE 976 -1344 976 -1504
WIRE 976 -1344 944 -1344
WIRE 1040 -1344 976 -1344
WIRE 624 -1328 608 -1328
WIRE 1152 -1328 1152 -1504
WIRE 1152 -1328 1104 -1328
WIRE 1040 -1312 1024 -1312
WIRE 608 -1296 608 -1328
WIRE 656 -1280 656 -1312
WIRE 1024 -1280 1024 -1312
WIRE 1072 -1264 1072 -1296
WIRE 64 256 64 224
WIRE 64 368 64 336
WIRE 144 368 64 368
WIRE 64 400 64 368
WIRE 144 448 144 368
WIRE 64 528 64 480
WIRE 48 768 48 704
WIRE 48 880 48 848
WIRE 32 2096 32 2032
WIRE 32 2208 32 2176
WIRE 32 2416 32 2336
WIRE 32 2560 32 2496
FLAG 64 224 +12
FLAG 64 528 -12
FLAG 144 448 0
FLAG 48 880 0
FLAG 48 704 S_MAX
FLAG 32 2208 0
FLAG 32 2032 S_440
FLAG 32 2336 V_440
FLAG 32 2560 0
FLAG 656 -1392 +12
FLAG 656 -1280 -12
FLAG 256 -1856 S_440
FLAG 608 -1296 0
FLAG 416 -1712 0
FLAG 352 -1360 V_440
FLAG 1072 -1376 +12
FLAG 1072 -1264 -12
FLAG 1024 -1280 0
SYMBOL voltage 64 240 R0
SYMATTR InstName V1
SYMATTR Value 12
SYMBOL voltage 64 384 R0
SYMATTR InstName V2
SYMATTR Value 12
SYMBOL voltage 48 752 R0
SYMATTR InstName V3
SYMATTR Value PULSE(0 3.3 0 800ns 800ns 0.119ms 0.239ms)
SYMBOL voltage 32 2080 R0
SYMATTR InstName V7
SYMATTR Value PULSE(0 3.3 0 800ns 800ns 1.13ms 2.27ms)
SYMBOL voltage 32 2400 R0
SYMATTR InstName V8
SYMATTR Value 0.45
SYMBOL OpAmps/LT1058 656 -1408 R0
SYMATTR InstName U6
SYMBOL cap 688 -1536 R90
WINDOW 0 0 32 VBottom 2
WINDOW 3 32 32 VTop 2
SYMATTR InstName C5
SYMATTR Value 1n
SYMBOL res 544 -1376 R90
WINDOW 0 0 56 VBottom 2
WINDOW 3 32 56 VTop 2
SYMATTR InstName R12
SYMATTR Value 100k
SYMBOL cap 384 -1872 R90
WINDOW 0 0 32 VBottom 2
WINDOW 3 32 32 VTop 2
SYMATTR InstName C6
SYMATTR Value 1n
SYMBOL res 400 -1824 R0
SYMATTR InstName R13
SYMATTR Value 47k
SYMBOL res 720 -1648 R0
SYMATTR InstName R14
SYMATTR Value 680
SYMBOL res 592 -1872 R90
WINDOW 0 0 56 VBottom 2
WINDOW 3 32 56 VTop 2
SYMATTR InstName R15
SYMATTR Value 1k
SYMBOL pnp 720 -1760 R90
SYMATTR InstName Q2
SYMBOL OpAmps/LT1058 1072 -1392 R0
SYMATTR InstName U1
SYMBOL res 960 -1360 R90
WINDOW 0 0 56 VBottom 2
WINDOW 3 32 56 VTop 2
SYMATTR InstName R1
SYMATTR Value 100k
SYMBOL res 1120 -1520 R90
WINDOW 0 0 56 VBottom 2
WINDOW 3 32 56 VTop 2
SYMATTR InstName R2
SYMATTR Value 33k
TEXT -40 112 Left 2 !.tran 150m UIC
