Version 4
SHEET 1 2512 2576
WIRE 320 -1856 256 -1856
WIRE 416 -1856 384 -1856
WIRE 496 -1856 416 -1856
WIRE 672 -1856 576 -1856
WIRE 416 -1808 416 -1856
WIRE 672 -1760 672 -1856
WIRE 416 -1712 416 -1728
WIRE 624 -1696 576 -1696
WIRE 736 -1696 720 -1696
WIRE 736 -1632 736 -1696
WIRE 576 -1520 576 -1696
WIRE 624 -1520 576 -1520
WIRE 736 -1520 736 -1552
WIRE 736 -1520 688 -1520
WIRE 1568 -1504 1552 -1504
WIRE 1760 -1504 1648 -1504
WIRE 1360 -1472 1168 -1472
WIRE 1264 -1392 1264 -1408
WIRE 656 -1376 656 -1392
WIRE 1168 -1376 1168 -1472
WIRE 1232 -1376 1168 -1376
WIRE 1600 -1376 1600 -1392
WIRE 448 -1360 352 -1360
WIRE 576 -1360 576 -1520
WIRE 576 -1360 528 -1360
WIRE 624 -1360 576 -1360
WIRE 1360 -1360 1360 -1472
WIRE 1360 -1360 1296 -1360
WIRE 1408 -1360 1360 -1360
WIRE 1552 -1360 1552 -1504
WIRE 1552 -1360 1488 -1360
WIRE 1568 -1360 1552 -1360
WIRE 2112 -1360 2112 -1392
WIRE 736 -1344 736 -1520
WIRE 736 -1344 688 -1344
WIRE 816 -1344 736 -1344
WIRE 960 -1344 880 -1344
WIRE 1104 -1344 1104 -1424
WIRE 1104 -1344 1040 -1344
WIRE 1232 -1344 1104 -1344
WIRE 1696 -1344 1632 -1344
WIRE 1760 -1344 1760 -1504
WIRE 1776 -1344 1760 -1344
WIRE 1872 -1344 1840 -1344
WIRE 2080 -1344 1872 -1344
WIRE 624 -1328 608 -1328
WIRE 1568 -1328 1552 -1328
WIRE 2208 -1328 2144 -1328
WIRE 2080 -1312 2064 -1312
WIRE 608 -1296 608 -1328
WIRE 1264 -1296 1264 -1328
WIRE 1552 -1296 1552 -1328
WIRE 1872 -1296 1872 -1344
WIRE 656 -1280 656 -1312
WIRE 1600 -1280 1600 -1312
WIRE 2112 -1280 2112 -1296
WIRE 1104 -1248 1104 -1344
WIRE 1872 -1184 1872 -1216
WIRE 2064 -1184 2064 -1312
WIRE 2080 -1184 2064 -1184
WIRE 2208 -1184 2208 -1328
WIRE 2208 -1184 2160 -1184
WIRE 1600 -1152 1600 -1184
WIRE 1360 -1136 1360 -1360
WIRE 1568 -1136 1360 -1136
WIRE 1104 -1120 1104 -1168
WIRE 1696 -1120 1632 -1120
WIRE 1760 -1120 1760 -1344
WIRE 2064 -1120 2064 -1184
WIRE 1568 -1104 1552 -1104
WIRE 1600 -1072 1600 -1088
WIRE 2064 -1024 2064 -1040
WIRE 1552 -976 1552 -1104
WIRE 1760 -976 1760 -1120
WIRE 1760 -976 1552 -976
WIRE 1760 -864 1760 -976
WIRE 1760 -736 1760 -784
WIRE 64 256 64 224
WIRE 64 368 64 336
WIRE 144 368 64 368
WIRE 64 400 64 368
WIRE 144 448 144 368
WIRE 64 528 64 480
WIRE 48 768 48 704
WIRE 48 880 48 848
WIRE 32 2096 32 2032
WIRE 32 2208 32 2176
WIRE 32 2416 32 2336
WIRE 32 2560 32 2496
FLAG 64 224 +12
FLAG 64 528 -12
FLAG 144 448 0
FLAG 48 880 0
FLAG 48 704 S_MAX
FLAG 32 2208 0
FLAG 32 2032 S_440
FLAG 32 2336 V_440
FLAG 32 2560 0
FLAG 656 -1392 +12
FLAG 656 -1280 -12
FLAG 256 -1856 S_440
FLAG 608 -1296 0
FLAG 416 -1712 0
FLAG 352 -1360 V_440
FLAG 1104 -1424 V_SAW_440
FLAG 1264 -1408 +12
FLAG 1264 -1296 -12
FLAG 1600 -1392 +12
FLAG 1600 -1280 -12
FLAG 1552 -1296 0
FLAG 1872 -1184 0
FLAG 2112 -1280 +12
FLAG 2112 -1392 -12
FLAG 2064 -1024 0
FLAG 1760 -736 -12
FLAG 1600 -1072 +12
FLAG 1600 -1184 -12
FLAG 1104 -1120 0
SYMBOL voltage 64 240 R0
SYMATTR InstName V1
SYMATTR Value 12
SYMBOL voltage 64 384 R0
SYMATTR InstName V2
SYMATTR Value 12
SYMBOL voltage 48 752 R0
SYMATTR InstName V3
SYMATTR Value PULSE(0 3.3 0 800ns 800ns 0.119ms 0.239ms)
SYMBOL voltage 32 2080 R0
SYMATTR InstName V7
SYMATTR Value PULSE(0 3.3 0 800ns 800ns 1.13ms 2.27ms)
SYMBOL voltage 32 2400 R0
SYMATTR InstName V8
SYMATTR Value 0.45
SYMBOL OpAmps/LT1058 656 -1408 R0
SYMATTR InstName U6
SYMBOL cap 688 -1536 R90
WINDOW 0 0 32 VBottom 2
WINDOW 3 32 32 VTop 2
SYMATTR InstName C5
SYMATTR Value 1n
SYMBOL res 544 -1376 R90
WINDOW 0 0 56 VBottom 2
WINDOW 3 32 56 VTop 2
SYMATTR InstName R12
SYMATTR Value 100k
SYMBOL cap 384 -1872 R90
WINDOW 0 0 32 VBottom 2
WINDOW 3 32 32 VTop 2
SYMATTR InstName C6
SYMATTR Value 1n
SYMBOL res 400 -1824 R0
SYMATTR InstName R13
SYMATTR Value 47k
SYMBOL res 720 -1648 R0
SYMATTR InstName R14
SYMATTR Value 680
SYMBOL res 592 -1872 R90
WINDOW 0 0 56 VBottom 2
WINDOW 3 32 56 VTop 2
SYMATTR InstName R15
SYMATTR Value 1k
SYMBOL pnp 720 -1760 R90
SYMATTR InstName Q2
SYMBOL cap 880 -1360 R90
WINDOW 0 0 32 VBottom 2
WINDOW 3 32 32 VTop 2
SYMATTR InstName C7
SYMATTR Value 1µ
SYMBOL OpAmps/LT1058 1264 -1424 R0
SYMATTR InstName U7
SYMBOL OpAmps/LT1058 1600 -1408 R0
SYMATTR InstName U8
SYMBOL res 1504 -1376 R90
WINDOW 0 0 56 VBottom 2
WINDOW 3 32 56 VTop 2
SYMATTR InstName R17
SYMATTR Value 10k
SYMBOL res 1664 -1520 R90
WINDOW 0 0 56 VBottom 2
WINDOW 3 32 56 VTop 2
SYMATTR InstName R18
SYMATTR Value 10k
SYMBOL diode 1696 -1328 R270
WINDOW 0 32 32 VTop 2
WINDOW 3 0 32 VBottom 2
SYMATTR InstName D3
SYMATTR Value 1N4148
SYMBOL diode 1696 -1104 R270
WINDOW 0 32 32 VTop 2
WINDOW 3 0 32 VBottom 2
SYMATTR InstName D4
SYMATTR Value 1N4148
SYMBOL res 1744 -880 R0
SYMATTR InstName R19
SYMATTR Value 10k
SYMBOL cap 1840 -1360 R90
WINDOW 0 0 32 VBottom 2
WINDOW 3 32 32 VTop 2
SYMATTR InstName C8
SYMATTR Value 1µ
SYMBOL res 1856 -1312 R0
SYMATTR InstName R20
SYMATTR Value 10k
SYMBOL OpAmps/LT1058 2112 -1264 M180
SYMATTR InstName U9
SYMBOL res 2176 -1200 R90
WINDOW 0 0 56 VBottom 2
WINDOW 3 32 56 VTop 2
SYMATTR InstName R21
SYMATTR Value 100k
SYMBOL res 2080 -1024 R180
WINDOW 0 36 76 Left 2
WINDOW 3 36 40 Left 2
SYMATTR InstName R22
SYMATTR Value 100k
SYMBOL OpAmps/LT1058 1600 -1056 M180
SYMATTR InstName U10
SYMBOL res 1056 -1360 R90
WINDOW 0 0 56 VBottom 2
WINDOW 3 32 56 VTop 2
SYMATTR InstName R23
SYMATTR Value 68k
SYMBOL res 1120 -1152 R180
WINDOW 0 36 76 Left 2
WINDOW 3 36 40 Left 2
SYMATTR InstName R24
SYMATTR Value 100k
TEXT -40 112 Left 2 !.tran 150m UIC
