Version 4
SHEET 1 2820 3292
WIRE 1648 -128 1648 -160
WIRE 1696 -112 1696 -144
WIRE 1696 -112 1680 -112
WIRE 1312 -96 1072 -96
WIRE 1440 -96 1312 -96
WIRE 1552 -96 1520 -96
WIRE 1616 -96 1552 -96
WIRE 1712 -80 1680 -80
WIRE 1072 -48 1072 -96
WIRE 1312 -48 1312 -96
WIRE 1552 -48 1552 -96
WIRE 1648 -48 1648 -64
WIRE 784 0 688 0
WIRE 944 0 864 0
WIRE 1008 0 944 0
WIRE 1392 0 1376 0
WIRE 1392 16 1392 0
WIRE 944 48 944 0
WIRE 1072 96 1072 48
WIRE 1552 96 1552 16
WIRE 1552 96 1072 96
WIRE 1712 96 1712 -80
WIRE 1712 96 1552 96
WIRE 944 160 944 128
WIRE 1072 176 1072 96
WIRE 64 256 64 224
WIRE 1312 272 1312 48
WIRE 2240 272 1312 272
WIRE 1072 304 1072 256
WIRE 1312 352 1312 272
WIRE 2240 352 2240 272
WIRE 64 368 64 336
WIRE 144 368 64 368
WIRE 64 400 64 368
WIRE 144 448 144 368
WIRE 1408 512 960 512
WIRE 1520 512 1488 512
WIRE 1632 512 1520 512
WIRE 2336 512 1888 512
WIRE 2448 512 2416 512
WIRE 2560 512 2448 512
WIRE 64 528 64 480
WIRE 1584 592 1584 576
WIRE 2512 592 2512 576
WIRE 1520 608 1520 512
WIRE 1552 608 1520 608
WIRE 2448 608 2448 512
WIRE 2480 608 2448 608
WIRE 816 624 528 624
WIRE 960 624 960 512
WIRE 960 624 896 624
WIRE 1120 624 960 624
WIRE 1216 624 1216 608
WIRE 1632 624 1632 512
WIRE 1632 624 1616 624
WIRE 1696 624 1632 624
WIRE 1888 624 1888 512
WIRE 2048 624 1888 624
WIRE 2144 624 2144 608
WIRE 2560 624 2560 512
WIRE 2560 624 2544 624
WIRE 2640 624 2560 624
WIRE 2720 624 2640 624
WIRE 1520 640 1360 640
WIRE 1552 640 1520 640
WIRE 2448 640 2288 640
WIRE 2480 640 2448 640
WIRE 1312 656 1312 432
WIRE 2240 656 2240 432
WIRE 960 688 960 624
WIRE 1360 688 1360 640
WIRE 1360 688 1344 688
WIRE 1584 688 1584 656
WIRE 2288 688 2288 640
WIRE 2288 688 2272 688
WIRE 2512 688 2512 656
WIRE 1888 720 1888 704
WIRE 2640 720 2640 624
WIRE 1392 736 1392 688
WIRE 2320 736 2320 688
WIRE 1120 752 1072 752
WIRE 1456 752 1456 720
WIRE 1696 752 1696 624
WIRE 1760 752 1696 752
WIRE 2000 752 1840 752
WIRE 2048 752 2000 752
WIRE 2384 752 2384 720
WIRE 2448 752 2448 640
WIRE 1520 768 1520 640
WIRE 1216 784 1216 752
WIRE 2144 784 2144 752
WIRE 1072 800 1072 752
WIRE 1216 800 1216 784
WIRE 2000 800 2000 752
WIRE 2144 800 2144 784
WIRE 960 816 960 768
WIRE 2448 832 2448 816
WIRE 2640 880 2640 784
WIRE 1072 912 1072 880
WIRE 2000 912 2000 880
WIRE 2640 976 2640 960
WIRE 2640 976 2448 976
WIRE 2640 992 2640 976
WIRE 1792 1040 1760 1040
WIRE 1888 1040 1856 1040
WIRE 2640 1104 2640 1072
WIRE 64 1120 64 1056
WIRE 1760 1168 1760 1040
WIRE 1792 1168 1760 1168
WIRE 1888 1168 1888 1040
WIRE 1888 1168 1856 1168
WIRE 64 1248 64 1200
WIRE 1760 1296 1760 1168
WIRE 1776 1296 1760 1296
WIRE 1888 1296 1888 1168
WIRE 1888 1296 1856 1296
WIRE 1824 1408 1824 1392
WIRE 1888 1424 1888 1296
WIRE 1888 1424 1856 1424
WIRE 1904 1424 1888 1424
WIRE 2016 1424 1984 1424
WIRE 64 1440 64 1392
WIRE 1520 1440 1520 832
WIRE 1760 1440 1760 1296
WIRE 1760 1440 1520 1440
WIRE 1792 1440 1760 1440
WIRE 2016 1440 2016 1424
WIRE 1888 1456 1856 1456
WIRE 1888 1488 1888 1456
WIRE 2448 1488 2448 976
WIRE 2448 1488 1888 1488
WIRE 1824 1504 1824 1472
WIRE 64 1552 64 1520
FLAG 64 224 +12
FLAG 64 528 -12
FLAG 144 448 0
FLAG 64 1248 0
FLAG 64 1056 SAW_5V_440
FLAG 1216 608 +12
FLAG 1216 784 -12
FLAG 64 1552 0
FLAG 64 1392 CV_RAMP
FLAG 1392 736 0
FLAG 1456 752 0
FLAG 528 624 SAW_5V_440
FLAG 960 816 0
FLAG 1072 912 0
FLAG 688 0 CV_RAMP
FLAG 944 160 0
FLAG 1392 16 0
FLAG 1648 -48 +12
FLAG 1648 -160 -12
FLAG 1696 -144 0
FLAG 1072 304 -12
FLAG 1584 576 +12
FLAG 1584 688 -12
FLAG 2144 608 +12
FLAG 2144 784 -12
FLAG 2320 736 0
FLAG 2384 752 0
FLAG 1888 720 0
FLAG 2000 912 0
FLAG 2512 576 +12
FLAG 2512 688 -12
FLAG 2448 832 0
FLAG 2640 1104 0
FLAG 1824 1392 +12
FLAG 1824 1504 -12
FLAG 2016 1440 0
FLAG 2720 624 LP_OUT
SYMBOL voltage 64 240 R0
SYMATTR InstName V1
SYMATTR Value 12
SYMBOL voltage 64 384 R0
SYMATTR InstName V2
SYMATTR Value 12
SYMBOL voltage 64 1104 R0
SYMATTR InstName V6
SYMATTR Value PULSE(-3 3 0 2.28ms 200ns 0 2.28ms)
SYMBOL LM13700 1184 608 R0
SYMATTR InstName U1
SYMBOL voltage 64 1424 R0
SYMATTR InstName V3
SYMATTR Value PULSE(-8 8 0 190ms 0 10ms 200ms)
SYMBOL res 912 608 R90
WINDOW 0 0 56 VBottom 2
WINDOW 3 32 56 VTop 2
SYMATTR InstName R6
SYMATTR Value 10k
SYMBOL res 976 784 R180
WINDOW 0 36 76 Left 2
WINDOW 3 36 40 Left 2
SYMATTR InstName R7
SYMATTR Value 470
SYMBOL res 1088 896 R180
WINDOW 0 36 76 Left 2
WINDOW 3 36 40 Left 2
SYMATTR InstName R8
SYMATTR Value 470
SYMBOL pnp 1376 48 R180
SYMATTR InstName Q1
SYMBOL pnp 1008 48 M180
SYMATTR InstName Q2
SYMBOL res 1536 -112 R90
WINDOW 0 0 56 VBottom 2
WINDOW 3 32 56 VTop 2
SYMATTR InstName R2
SYMATTR Value 4.7k
SYMBOL res 880 -16 R90
WINDOW 0 0 56 VBottom 2
WINDOW 3 32 56 VTop 2
SYMATTR InstName R3
SYMATTR Value 100k
SYMBOL res 960 144 R180
WINDOW 0 36 76 Left 2
WINDOW 3 36 40 Left 2
SYMATTR InstName R4
SYMATTR Value 1.8k
SYMBOL res 1088 272 R180
WINDOW 0 36 76 Left 2
WINDOW 3 36 40 Left 2
SYMATTR InstName R9
SYMATTR Value 470k
SYMBOL OpAmps/LT1058 1648 -32 R180
SYMATTR InstName U3
SYMBOL cap 1536 -48 R0
SYMATTR InstName C2
SYMATTR Value 4.7n
SYMBOL OpAmps/LT1058 1584 560 R0
SYMATTR InstName U4
SYMBOL res 1504 496 R90
WINDOW 0 0 56 VBottom 2
WINDOW 3 32 56 VTop 2
SYMATTR InstName R5
SYMATTR Value 10k
SYMBOL LM13700 2112 608 R0
SYMATTR InstName U2
SYMBOL res 1904 720 R180
WINDOW 0 36 76 Left 2
WINDOW 3 36 40 Left 2
SYMATTR InstName R10
SYMATTR Value 470
SYMBOL res 2016 896 R180
WINDOW 0 36 76 Left 2
WINDOW 3 36 40 Left 2
SYMATTR InstName R11
SYMATTR Value 470
SYMBOL OpAmps/LT1058 2512 560 R0
SYMATTR InstName U5
SYMBOL res 2432 496 R90
WINDOW 0 0 56 VBottom 2
WINDOW 3 32 56 VTop 2
SYMATTR InstName R12
SYMATTR Value 10k
SYMBOL cap 2432 752 R0
SYMATTR InstName C1
SYMATTR Value 1n
SYMBOL cap 1504 768 R0
SYMATTR InstName C3
SYMATTR Value 1n
SYMBOL res 1856 736 R90
WINDOW 0 0 56 VBottom 2
WINDOW 3 32 56 VTop 2
SYMATTR InstName R14
SYMATTR Value 10k
SYMBOL res 2624 864 R0
SYMATTR InstName R15
SYMATTR Value 50k
SYMBOL res 2624 976 R0
SYMATTR InstName R16
SYMATTR Value 50k
SYMBOL cap 2624 720 R0
SYMATTR InstName C4
SYMATTR Value 470n
SYMBOL OpAmps/LT1058 1824 1376 M0
SYMATTR InstName U6
SYMBOL LED 1856 1152 R90
WINDOW 0 0 32 VBottom 2
WINDOW 3 72 32 VTop 2
SYMATTR InstName D1
SYMBOL LED 1792 1024 M90
WINDOW 0 0 32 VBottom 2
WINDOW 3 72 32 VTop 2
SYMATTR InstName D2
SYMBOL res 1872 1280 R90
WINDOW 0 0 56 VBottom 2
WINDOW 3 32 56 VTop 2
SYMATTR InstName R17
SYMATTR Value 10k
SYMBOL res 2000 1408 R90
WINDOW 0 0 56 VBottom 2
WINDOW 3 32 56 VTop 2
SYMATTR InstName R18
SYMATTR Value 1.8k
SYMBOL res 1296 336 R0
SYMATTR InstName R1
SYMATTR Value 10k
SYMBOL res 2224 336 R0
SYMATTR InstName R13
SYMATTR Value 10k
TEXT -40 112 Left 2 !.tran 200m UIC
TEXT -32 80 Left 2 !.lib lm13700.sub
