Version 4
SHEET 1 2512 3292
WIRE 944 64 880 64
WIRE 1056 64 1024 64
WIRE 1088 64 1056 64
WIRE 1312 64 1168 64
WIRE 1344 64 1312 64
WIRE 1456 64 1424 64
WIRE 1456 144 1456 64
WIRE 1056 160 1056 64
WIRE 1088 160 1056 160
WIRE 1200 160 1152 160
WIRE 64 256 64 224
WIRE 1312 256 1312 64
WIRE 1120 272 1120 256
WIRE 944 288 896 288
WIRE 1056 288 1056 160
WIRE 1056 288 1024 288
WIRE 1088 288 1056 288
WIRE 1200 304 1200 160
WIRE 1200 304 1152 304
WIRE 1248 304 1200 304
WIRE 1088 320 1072 320
WIRE 1072 352 1072 320
WIRE 64 368 64 336
WIRE 144 368 64 368
WIRE 1120 368 1120 336
WIRE 64 400 64 368
WIRE 1312 432 1312 352
WIRE 144 448 144 368
WIRE 1504 448 1456 448
WIRE 1632 448 1584 448
WIRE 64 528 64 480
WIRE 1552 576 1552 560
WIRE 1456 592 1456 448
WIRE 1456 592 1360 592
WIRE 1520 592 1456 592
WIRE 1632 608 1632 448
WIRE 1632 608 1584 608
WIRE 1696 608 1632 608
WIRE 1728 608 1696 608
WIRE 672 624 528 624
WIRE 816 624 736 624
WIRE 960 624 896 624
WIRE 1120 624 960 624
WIRE 1216 624 1216 608
WIRE 1520 624 1504 624
WIRE 1312 656 1312 512
WIRE 1504 656 1504 624
WIRE 1552 672 1552 640
WIRE 960 688 960 624
WIRE 1360 688 1360 592
WIRE 1360 688 1344 688
WIRE 1696 688 1696 608
WIRE 1392 736 1392 688
WIRE 1120 752 1072 752
WIRE 1456 752 1456 720
WIRE 1216 784 1216 752
WIRE 1696 784 1696 768
WIRE 1856 784 1696 784
WIRE 1072 800 1072 752
WIRE 1216 800 1216 784
WIRE 960 816 960 768
WIRE 1696 816 1696 784
WIRE 1072 912 1072 880
WIRE 1696 928 1696 896
WIRE 2000 944 2000 896
WIRE 1392 976 1392 928
WIRE 2000 1072 2000 1024
WIRE 2224 1088 2192 1088
WIRE 2352 1088 2304 1088
WIRE 1392 1104 1392 1056
WIRE 64 1120 64 1056
WIRE 1616 1120 1584 1120
WIRE 1744 1120 1696 1120
WIRE 1936 1120 1904 1120
WIRE 1328 1152 1296 1152
WIRE 1200 1200 1072 1200
WIRE 2256 1216 2256 1200
WIRE 2000 1232 2000 1168
WIRE 2064 1232 2000 1232
WIRE 2192 1232 2192 1088
WIRE 2192 1232 2144 1232
WIRE 2224 1232 2192 1232
WIRE 64 1248 64 1200
WIRE 1648 1248 1648 1232
WIRE 2352 1248 2352 1088
WIRE 2352 1248 2288 1248
WIRE 1392 1264 1392 1200
WIRE 1456 1264 1392 1264
WIRE 1584 1264 1584 1120
WIRE 1584 1264 1536 1264
WIRE 1616 1264 1584 1264
WIRE 2224 1264 2208 1264
WIRE 1136 1280 1136 1264
WIRE 1744 1280 1744 1120
WIRE 1744 1280 1680 1280
WIRE 1904 1280 1904 1120
WIRE 1904 1280 1744 1280
WIRE 2000 1280 2000 1232
WIRE 1072 1296 1072 1200
WIRE 1104 1296 1072 1296
WIRE 1616 1296 1600 1296
WIRE 2208 1296 2208 1264
WIRE 1200 1312 1200 1200
WIRE 1200 1312 1168 1312
WIRE 1296 1312 1296 1152
WIRE 1296 1312 1200 1312
WIRE 1392 1312 1392 1264
WIRE 2256 1312 2256 1280
WIRE 1104 1328 1024 1328
WIRE 1600 1328 1600 1296
WIRE 1904 1328 1904 1280
WIRE 1936 1328 1904 1328
WIRE 1648 1344 1648 1312
WIRE 1296 1360 1296 1312
WIRE 1328 1360 1296 1360
WIRE 1136 1376 1136 1344
WIRE 2000 1408 2000 1376
WIRE 64 1440 64 1392
WIRE 1392 1440 1392 1408
WIRE 64 1552 64 1520
WIRE 2000 1552 2000 1488
WIRE 1392 1584 1392 1520
FLAG 64 224 +12
FLAG 64 528 -12
FLAG 144 448 0
FLAG 1120 256 +12
FLAG 1120 368 -12
FLAG 64 1248 0
FLAG 64 1056 SAW_5V_440
FLAG 1216 608 +12
FLAG 1216 784 -12
FLAG 64 1552 0
FLAG 64 1392 CV_RAMP
FLAG 1072 352 0
FLAG 880 64 CV_RAMP
FLAG 1456 144 0
FLAG 1392 736 0
FLAG 1456 752 0
FLAG 1552 560 +12
FLAG 1552 672 -12
FLAG 1504 656 0
FLAG 528 624 SAW_5V_440
FLAG 960 816 0
FLAG 1072 912 0
FLAG 1728 608 VCA_OUT
FLAG 1136 1264 +12
FLAG 1136 1376 -12
FLAG 896 288 +12
FLAG 1696 928 0
FLAG 1856 784 FOLD_IN
FLAG 1024 1328 FOLD_IN
FLAG 1392 928 +12
FLAG 1392 1584 -12
FLAG 1648 1232 +12
FLAG 1648 1344 -12
FLAG 1600 1328 0
FLAG 2000 896 +12
FLAG 2000 1552 -12
FLAG 2256 1200 +12
FLAG 2256 1312 -12
FLAG 2208 1296 0
SYMBOL voltage 64 240 R0
SYMATTR InstName V1
SYMATTR Value 12
SYMBOL voltage 64 384 R0
SYMATTR InstName V2
SYMATTR Value 12
SYMBOL OpAmps/LT1058 1120 240 R0
SYMATTR InstName U5
SYMBOL voltage 64 1104 R0
SYMATTR InstName V6
SYMATTR Value PULSE(-5 5 0 1.14ms 1.14ms 0 2.28ms)
SYMBOL LM13700 1184 608 R0
SYMATTR InstName U1
SYMBOL voltage 64 1424 R0
SYMATTR InstName V3
SYMATTR Value PULSE(0 3.3 0 50ms 0 50ms 100ms)
SYMBOL res 1184 48 R90
WINDOW 0 0 56 VBottom 2
WINDOW 3 32 56 VTop 2
SYMATTR InstName R1
SYMATTR Value 6.8k
SYMBOL res 1040 48 R90
WINDOW 0 0 56 VBottom 2
WINDOW 3 32 56 VTop 2
SYMATTR InstName R2
SYMATTR Value 92k
SYMBOL pnp 1248 352 M180
SYMATTR InstName Q1
SYMBOL res 1440 48 R90
WINDOW 0 0 56 VBottom 2
WINDOW 3 32 56 VTop 2
SYMATTR InstName R3
SYMATTR Value 1k
SYMBOL res 1296 416 R0
SYMATTR InstName R4
SYMATTR Value 4.7k
SYMBOL OpAmps/LT1058 1552 544 R0
SYMATTR InstName U2
SYMBOL res 1600 432 R90
WINDOW 0 0 56 VBottom 2
WINDOW 3 32 56 VTop 2
SYMATTR InstName R5
SYMATTR Value 47k
SYMBOL res 912 608 R90
WINDOW 0 0 56 VBottom 2
WINDOW 3 32 56 VTop 2
SYMATTR InstName R6
SYMATTR Value 100k
SYMBOL res 976 784 R180
WINDOW 0 36 76 Left 2
WINDOW 3 36 40 Left 2
SYMATTR InstName R7
SYMATTR Value 620
SYMBOL res 1088 896 R180
WINDOW 0 36 76 Left 2
WINDOW 3 36 40 Left 2
SYMATTR InstName R8
SYMATTR Value 620
SYMBOL cap 736 608 R90
WINDOW 0 0 32 VBottom 2
WINDOW 3 32 32 VTop 2
SYMATTR InstName C1
SYMATTR Value 470n
SYMBOL OpAmps/LT1058 1136 1248 R0
SYMATTR InstName U3
SYMBOL res 1040 272 R90
WINDOW 0 0 56 VBottom 2
WINDOW 3 32 56 VTop 2
SYMATTR InstName R9
SYMATTR Value 680k
SYMBOL cap 1152 144 R90
WINDOW 0 0 32 VBottom 2
WINDOW 3 32 32 VTop 2
SYMATTR InstName C2
SYMATTR Value 1n
SYMBOL res 1680 672 R0
SYMATTR InstName R10
SYMATTR Value 100k
SYMBOL res 1680 800 R0
SYMATTR InstName R11
SYMATTR Value 5.6k
SYMBOL pnp 1328 1200 M180
SYMATTR InstName Q2
SYMATTR Value BC857A
SYMBOL npn 1328 1312 R0
SYMATTR InstName Q3
SYMATTR Value BC847A
SYMBOL OpAmps/LT1058 1648 1216 R0
SYMATTR InstName U4
SYMBOL res 1552 1248 R90
WINDOW 0 0 56 VBottom 2
WINDOW 3 32 56 VTop 2
SYMATTR InstName R12
SYMATTR Value 10k
SYMBOL res 1712 1104 R90
WINDOW 0 0 56 VBottom 2
WINDOW 3 32 56 VTop 2
SYMATTR InstName R13
SYMATTR Value 18k
SYMBOL res 1376 1424 R0
SYMATTR InstName R14
SYMATTR Value 22k
SYMBOL res 1376 960 R0
SYMATTR InstName R15
SYMATTR Value 22k
SYMBOL pnp 1936 1168 M180
SYMATTR InstName Q4
SYMATTR Value BC857A
SYMBOL npn 1936 1280 R0
SYMATTR InstName Q5
SYMATTR Value BC847A
SYMBOL OpAmps/LT1058 2256 1184 R0
SYMATTR InstName U6
SYMBOL res 2160 1216 R90
WINDOW 0 0 56 VBottom 2
WINDOW 3 32 56 VTop 2
SYMATTR InstName R16
SYMATTR Value 10k
SYMBOL res 2320 1072 R90
WINDOW 0 0 56 VBottom 2
WINDOW 3 32 56 VTop 2
SYMATTR InstName R17
SYMATTR Value 220k
SYMBOL res 1984 1392 R0
SYMATTR InstName R18
SYMATTR Value 22k
SYMBOL res 1984 928 R0
SYMATTR InstName R19
SYMATTR Value 22k
TEXT -40 112 Left 2 !.tran 100m UIC
TEXT -32 80 Left 2 !.lib lm13700.sub
TEXT 432 160 Left 2 ;Input range for 1st folder:\n0.4Vpp min\n1.2Vpp max
