Version 4
SHEET 1 3368 3520
WIRE 64 256 64 224
WIRE 64 368 64 336
WIRE 144 368 64 368
WIRE 64 400 64 368
WIRE 144 448 144 368
WIRE 64 528 64 480
WIRE 352 608 352 560
WIRE 1376 640 1248 640
WIRE 1504 640 1488 640
WIRE 1632 640 1584 640
WIRE 1744 640 1632 640
WIRE 1952 640 1856 640
WIRE 1632 672 1632 640
WIRE 352 720 352 688
WIRE 1632 752 1632 736
WIRE -80 864 -80 816
WIRE 64 864 64 816
WIRE 352 960 352 912
WIRE -80 976 -80 944
WIRE 64 976 64 944
WIRE 352 1072 352 1040
FLAG 64 224 +12
FLAG 64 528 -12
FLAG 144 448 0
FLAG 64 816 vcc1
FLAG 64 976 0
FLAG 352 560 SCK_12
FLAG 352 720 0
FLAG -80 816 vcc
FLAG -80 976 0
FLAG 1952 640 SCK_12_DEL
FLAG 1248 640 SCK_12
FLAG 1632 752 0
FLAG 352 912 SCK_12_IDEAL
FLAG 352 1072 0
SYMBOL voltage 64 240 R0
SYMATTR InstName V1
SYMATTR Value 12
SYMBOL voltage 64 384 R0
SYMATTR InstName V2
SYMATTR Value 12
SYMBOL voltage 64 848 R0
SYMATTR InstName V3
SYMATTR Value 3.3
SYMBOL voltage 352 592 R0
SYMATTR InstName V5
SYMATTR Value PULSE(0 3.3 100ns 2.5ns 2.5ns 41.66ns 83.32ns)
SYMBOL voltage -80 848 R0
SYMATTR InstName V6
SYMATTR Value 3.3
SYMBOL 74HC/74hc14 1792 592 R0
SYMATTR InstName U3
SYMATTR SpiceLine VCC=3.3  SPEED=0.5 TRIPDT=1e-9
SYMBOL 74HC/74hc14 1424 592 R0
SYMATTR InstName U4
SYMATTR SpiceLine VCC=3.3  SPEED=1.0 TRIPDT=1e-9
SYMBOL res 1600 624 R90
WINDOW 0 0 56 VBottom 2
WINDOW 3 32 56 VTop 2
SYMATTR InstName R2
SYMATTR Value 680
SYMBOL cap 1616 672 R0
SYMATTR InstName C2
SYMATTR Value 4.7p
SYMBOL voltage 352 944 R0
SYMATTR InstName V4
SYMATTR Value PULSE(0 3.3 270ns 2.5ns 2.5ns 41.66ns 83.32ns)
TEXT -40 112 Left 2 !.tran 5u UIC
TEXT 416 632 Left 2 ;Simulated 12Mhz SPI clock
TEXT -40 80 Left 2 !.INCLUDE CD4000.lib
TEXT -40 48 Left 2 !.INCLUDE 74HC.lib
