Version 4
SHEET 1 3368 3520
WIRE 64 256 64 224
WIRE 64 368 64 336
WIRE 144 368 64 368
WIRE 64 400 64 368
WIRE 144 448 144 368
WIRE 64 528 64 480
WIRE 352 608 352 560
WIRE 352 720 352 688
WIRE 64 864 64 816
WIRE 64 976 64 944
WIRE 64 1136 64 1088
WIRE 64 1248 64 1216
FLAG 64 224 +12
FLAG 64 528 -12
FLAG 144 448 0
FLAG 64 816 +3.3
FLAG 64 976 0
FLAG 64 1088 +5
FLAG 64 1248 0
FLAG 352 560 SCK
FLAG 352 720 0
SYMBOL voltage 64 240 R0
SYMATTR InstName V1
SYMATTR Value 12
SYMBOL voltage 64 384 R0
SYMATTR InstName V2
SYMATTR Value 12
SYMBOL voltage 64 848 R0
SYMATTR InstName V3
SYMATTR Value 3.3
SYMBOL voltage 64 1120 R0
SYMATTR InstName V4
SYMATTR Value 5
SYMBOL voltage 352 592 R0
SYMATTR InstName V5
SYMATTR Value PULSE(0 3.3 0 60ns 60ns 500ns 1000ns)
TEXT -40 112 Left 2 !.tran 3m UIC
TEXT 416 632 Left 2 ;Simulated 1Mhz SPI clock
TEXT -40 80 Left 2 !.INCLUDE 74HC_v.lib
