Version 4
SHEET 1 3368 3520
WIRE -1168 144 -1168 96
WIRE -1168 256 -1168 224
WIRE 64 256 64 224
WIRE 64 368 64 336
WIRE 144 368 64 368
WIRE 64 400 64 368
WIRE 144 448 144 368
WIRE 64 528 64 480
WIRE -1184 592 -1184 544
WIRE 352 608 352 560
WIRE -624 624 -672 624
WIRE -1184 688 -1184 672
WIRE -624 688 -656 688
WIRE -624 720 -720 720
WIRE 352 720 352 688
WIRE -624 784 -816 784
WIRE -624 816 -672 816
WIRE -624 848 -640 848
WIRE -640 864 -640 848
WIRE -80 864 -80 816
WIRE 64 864 64 816
WIRE -624 880 -656 880
WIRE -624 912 -640 912
WIRE -624 944 -640 944
WIRE -624 976 -640 976
WIRE -80 976 -80 944
WIRE 64 976 64 944
WIRE -640 992 -640 976
WIRE -624 1008 -688 1008
WIRE -624 1040 -640 1040
WIRE -368 1040 -400 1040
WIRE -352 1040 -368 1040
WIRE -640 1056 -640 1040
WIRE -368 1136 -368 1040
WIRE -624 1216 -672 1216
WIRE -368 1232 -368 1216
WIRE -624 1280 -656 1280
WIRE -624 1312 -720 1312
WIRE -624 1376 -640 1376
WIRE -640 1392 -640 1376
WIRE -624 1408 -672 1408
WIRE -624 1440 -640 1440
WIRE -624 1472 -656 1472
WIRE -624 1504 -640 1504
WIRE -624 1536 -640 1536
WIRE -624 1568 -640 1568
WIRE -640 1584 -640 1568
WIRE -624 1600 -688 1600
WIRE -624 1632 -640 1632
WIRE -352 1632 -400 1632
WIRE -640 1648 -640 1632
WIRE -816 1728 -816 784
WIRE -352 1728 -352 1632
WIRE -352 1728 -816 1728
FLAG 64 224 +12
FLAG 64 528 -12
FLAG 144 448 0
FLAG 64 816 vdd
FLAG 64 976 0
FLAG 352 560 SCK_12
FLAG 352 720 0
FLAG -80 816 vcc
FLAG -80 976 0
FLAG -656 688 0
FLAG -720 720 SCK_PRE
FLAG -352 1040 MOSI_12
FLAG -640 864 0
FLAG -640 992 0
FLAG -640 1056 0
FLAG -688 1008 Vdd
FLAG -640 944 Vdd
FLAG -640 912 Vdd
FLAG -656 880 Vdd
FLAG -672 816 Vdd
FLAG -368 1232 0
FLAG -1184 688 0
FLAG -1184 544 VLoad
FLAG -672 624 VLoad
FLAG -656 1280 0
FLAG -720 1312 SCK_PRE
FLAG -640 1584 0
FLAG -640 1648 0
FLAG -688 1600 Vdd
FLAG -640 1536 Vdd
FLAG -640 1504 Vdd
FLAG -672 1408 Vdd
FLAG -672 1216 VLoad
FLAG -640 1440 Vdd
FLAG -656 1472 0
FLAG -640 1392 0
FLAG -1168 96 SCK_PRE
FLAG -1168 256 0
SYMBOL voltage 64 240 R0
SYMATTR InstName V1
SYMATTR Value 12
SYMBOL voltage 64 384 R0
SYMATTR InstName V2
SYMATTR Value 12
SYMBOL voltage 64 848 R0
SYMATTR InstName V3
SYMATTR Value 3.3
SYMBOL voltage 352 592 R0
SYMATTR InstName V5
SYMATTR Value PULSE(0 3.3 100ns 3ns 3ns 20.83ns 41.66ns)
SYMBOL voltage -80 848 R0
SYMATTR InstName V6
SYMATTR Value 3.3
SYMBOL 74HC/74hc165 -512 544 R0
SYMATTR InstName U1
SYMATTR SpiceLine VCC=3.3  SPEED=1.0  TRIPDT=1e-9
SYMBOL res -384 1120 R0
SYMATTR InstName R1
SYMATTR Value 10k
SYMBOL voltage -1184 576 R0
SYMATTR InstName V7
SYMATTR Value PULSE(0 3.3 20ns 5ns 5ns 20u 20u)
SYMBOL 74HC/74hc165 -512 1136 R0
SYMATTR InstName U2
SYMATTR SpiceLine VCC=3.3  SPEED=1.0  TRIPDT=1e-9
SYMBOL voltage -1168 128 R0
SYMATTR InstName V8
SYMATTR Value PULSE(0 3.3 70ns 3ns 3ns 20.83ns 41.66ns)
TEXT -40 112 Left 2 !.tran 1u UIC
TEXT 416 632 Left 2 ;Simulated 12Mhz SPI clock
TEXT -40 80 Left 2 !.INCLUDE CD4000.lib
TEXT -40 48 Left 2 !.INCLUDE 74HC.lib
TEXT -1424 1280 Left 2 ;Sample data is: 10111010 10110110
