Version 4
SHEET 1 2512 2576
WIRE 64 256 64 224
WIRE 1456 288 1440 288
WIRE 1648 288 1536 288
WIRE 1248 320 1056 320
WIRE 64 368 64 336
WIRE 144 368 64 368
WIRE 64 400 64 368
WIRE 1152 400 1152 384
WIRE 1056 416 1056 320
WIRE 1120 416 1056 416
WIRE 1488 416 1488 400
WIRE 1248 432 1248 320
WIRE 1248 432 1184 432
WIRE 1296 432 1248 432
WIRE 1440 432 1440 288
WIRE 1440 432 1376 432
WIRE 1456 432 1440 432
WIRE 144 448 144 368
WIRE 1120 448 960 448
WIRE 1584 448 1520 448
WIRE 1648 448 1648 288
WIRE 1664 448 1648 448
WIRE 1760 448 1728 448
WIRE 1456 464 1440 464
WIRE 1152 496 1152 464
WIRE 1440 496 1440 464
WIRE 1760 496 1760 448
WIRE 1488 512 1488 480
WIRE 64 528 64 480
WIRE 1760 608 1760 576
WIRE 1488 640 1488 608
WIRE 1248 656 1248 432
WIRE 1456 656 1248 656
WIRE 1584 672 1520 672
WIRE 1648 672 1648 448
WIRE 1456 688 1440 688
WIRE 1488 720 1488 704
WIRE 48 768 48 704
WIRE 1440 816 1440 688
WIRE 1504 816 1440 816
WIRE 1648 816 1648 672
WIRE 1648 816 1584 816
WIRE 1440 848 1440 816
WIRE 48 880 48 848
WIRE 1648 928 1648 816
WIRE 1440 944 1440 928
WIRE 1648 1056 1648 1008
FLAG 64 224 +12
FLAG 64 528 -12
FLAG 144 448 0
FLAG 48 880 0
FLAG 48 704 SAW_440
FLAG 1152 384 +12
FLAG 1152 496 -12
FLAG 1488 400 +12
FLAG 1488 512 -12
FLAG 1440 496 0
FLAG 1760 608 0
FLAG 1648 1056 -12
FLAG 1488 720 +12
FLAG 1488 608 -12
FLAG 960 448 SAW_440
FLAG 1440 944 0
SYMBOL voltage 64 240 R0
SYMATTR InstName V1
SYMATTR Value 12
SYMBOL voltage 64 384 R0
SYMATTR InstName V2
SYMATTR Value 12
SYMBOL voltage 48 752 R0
WINDOW 3 24 96 Invisible 2
SYMATTR InstName V3
SYMATTR Value PULSE(-3 3 0 0.239ms 1000ns 0 0.239ms)
SYMBOL OpAmps/LT1058 1152 368 R0
SYMATTR InstName U1
SYMBOL OpAmps/LT1058 1488 384 R0
SYMATTR InstName U2
SYMBOL res 1392 416 R90
WINDOW 0 0 56 VBottom 2
WINDOW 3 32 56 VTop 2
SYMATTR InstName R1
SYMATTR Value 10k
SYMBOL res 1552 272 R90
WINDOW 0 0 56 VBottom 2
WINDOW 3 32 56 VTop 2
SYMATTR InstName R2
SYMATTR Value 20k
SYMBOL diode 1584 464 R270
WINDOW 0 32 32 VTop 2
WINDOW 3 0 32 VBottom 2
SYMATTR InstName D1
SYMATTR Value 1N4148
SYMBOL diode 1584 688 R270
WINDOW 0 32 32 VTop 2
WINDOW 3 0 32 VBottom 2
SYMATTR InstName D2
SYMATTR Value 1N4148
SYMBOL res 1632 912 R0
SYMATTR InstName R3
SYMATTR Value 10k
SYMBOL cap 1728 432 R90
WINDOW 0 0 32 VBottom 2
WINDOW 3 32 32 VTop 2
SYMATTR InstName C1
SYMATTR Value 1µ
SYMBOL res 1744 480 R0
SYMATTR InstName R4
SYMATTR Value 10k
SYMBOL OpAmps/LT1058 1488 736 M180
SYMATTR InstName U3
SYMBOL res 1600 800 R90
WINDOW 0 0 56 VBottom 2
WINDOW 3 32 56 VTop 2
SYMATTR InstName R5
SYMATTR Value 10k
SYMBOL res 1456 944 R180
WINDOW 0 36 76 Left 2
WINDOW 3 36 40 Left 2
SYMATTR InstName R6
SYMATTR Value 10k
TEXT -40 112 Left 2 !.tran 200m UIC
