Version 4
SHEET 1 2512 3292
WIRE 944 64 880 64
WIRE 1056 64 1024 64
WIRE 1088 64 1056 64
WIRE 1312 64 1168 64
WIRE 1344 64 1312 64
WIRE 1456 64 1424 64
WIRE 1456 144 1456 64
WIRE 1056 160 1056 64
WIRE 1088 160 1056 160
WIRE 1200 160 1152 160
WIRE 64 256 64 224
WIRE 1312 256 1312 64
WIRE 1120 272 1120 256
WIRE 1056 288 1056 160
WIRE 1088 288 1056 288
WIRE 1200 304 1200 160
WIRE 1200 304 1152 304
WIRE 1248 304 1200 304
WIRE 1088 320 1072 320
WIRE 1072 352 1072 320
WIRE 64 368 64 336
WIRE 144 368 64 368
WIRE 1120 368 1120 336
WIRE 64 400 64 368
WIRE 1312 432 1312 352
WIRE 144 448 144 368
WIRE 1504 448 1456 448
WIRE 1632 448 1584 448
WIRE 64 528 64 480
WIRE 1552 576 1552 560
WIRE 1456 592 1456 448
WIRE 1456 592 1360 592
WIRE 1520 592 1456 592
WIRE 1632 608 1632 448
WIRE 1632 608 1584 608
WIRE 1696 608 1632 608
WIRE 672 624 528 624
WIRE 816 624 736 624
WIRE 960 624 896 624
WIRE 1120 624 960 624
WIRE 1216 624 1216 608
WIRE 1520 624 1504 624
WIRE 1312 656 1312 512
WIRE 1504 656 1504 624
WIRE 1552 672 1552 640
WIRE 960 688 960 624
WIRE 1360 688 1360 592
WIRE 1360 688 1344 688
WIRE 1392 736 1392 688
WIRE 1120 752 1072 752
WIRE 1456 752 1456 720
WIRE 1216 784 1216 752
WIRE 1072 800 1072 752
WIRE 1216 800 1216 784
WIRE 960 816 960 768
WIRE 1072 912 1072 880
WIRE 64 1120 64 1056
WIRE 64 1248 64 1200
WIRE 64 1440 64 1392
WIRE 64 1552 64 1520
FLAG 64 224 +12
FLAG 64 528 -12
FLAG 144 448 0
FLAG 1120 256 +12
FLAG 1120 368 -12
FLAG 64 1248 0
FLAG 64 1056 SAW_5V_440
FLAG 1216 608 +12
FLAG 1216 784 -12
FLAG 64 1552 0
FLAG 64 1392 CV_RAMP
FLAG 1072 352 0
FLAG 880 64 CV_RAMP
FLAG 1456 144 0
FLAG 1392 736 0
FLAG 1456 752 0
FLAG 1552 560 +12
FLAG 1552 672 -12
FLAG 1504 656 0
FLAG 528 624 SAW_5V_440
FLAG 960 816 0
FLAG 1072 912 0
FLAG 1696 608 VCA_OUT
SYMBOL voltage 64 240 R0
SYMATTR InstName V1
SYMATTR Value 12
SYMBOL voltage 64 384 R0
SYMATTR InstName V2
SYMATTR Value 12
SYMBOL OpAmps/LT1058 1120 240 R0
SYMATTR InstName U5
SYMBOL voltage 64 1104 R0
SYMATTR InstName V6
SYMATTR Value PULSE(-3 3 0 2.28ms 200ns 0 2.28ms)
SYMBOL LM13700 1184 608 R0
SYMATTR InstName U1
SYMBOL voltage 64 1424 R0
SYMATTR InstName V3
SYMATTR Value PULSE(0 3.3 0 50ms 0 50ms 100ms)
SYMBOL res 1184 48 R90
WINDOW 0 0 56 VBottom 2
WINDOW 3 32 56 VTop 2
SYMATTR InstName R1
SYMATTR Value 12k
SYMBOL res 1040 48 R90
WINDOW 0 0 56 VBottom 2
WINDOW 3 32 56 VTop 2
SYMATTR InstName R2
SYMATTR Value 100k
SYMBOL pnp 1248 352 M180
SYMATTR InstName Q1
SYMBOL res 1440 48 R90
WINDOW 0 0 56 VBottom 2
WINDOW 3 32 56 VTop 2
SYMATTR InstName R3
SYMATTR Value 1k
SYMBOL res 1296 416 R0
SYMATTR InstName R4
SYMATTR Value 4.7k
SYMBOL OpAmps/LT1058 1552 544 R0
SYMATTR InstName U2
SYMBOL res 1600 432 R90
WINDOW 0 0 56 VBottom 2
WINDOW 3 32 56 VTop 2
SYMATTR InstName R5
SYMATTR Value 33k
SYMBOL res 912 608 R90
WINDOW 0 0 56 VBottom 2
WINDOW 3 32 56 VTop 2
SYMATTR InstName R6
SYMATTR Value 100k
SYMBOL res 976 784 R180
WINDOW 0 36 76 Left 2
WINDOW 3 36 40 Left 2
SYMATTR InstName R7
SYMATTR Value 680
SYMBOL res 1088 896 R180
WINDOW 0 36 76 Left 2
WINDOW 3 36 40 Left 2
SYMATTR InstName R8
SYMATTR Value 680
SYMBOL cap 736 608 R90
WINDOW 0 0 32 VBottom 2
WINDOW 3 32 32 VTop 2
SYMATTR InstName C1
SYMATTR Value 470n
SYMBOL cap 1152 144 R90
WINDOW 0 0 32 VBottom 2
WINDOW 3 32 32 VTop 2
SYMATTR InstName C2
SYMATTR Value 1n
TEXT -40 112 Left 2 !.tran 100m UIC
TEXT -32 80 Left 2 !.lib lm13700.sub
